dendrobine
 OpenBabel02262423333D

  0  0  0     0  0            999 V3000
M  V30 BEGIN CTAB
M  V30 COUNTS 44 47 0 0 1
M  V30 BEGIN ATOM
M  V30 1 N 1.296 -0.2319 1.267 0
M  V30 2 C 0.0573 -0.0226 2.1227 0
M  V30 3 C -1.0974 -0.4738 1.2059 0
M  V30 4 C -0.4284 -0.4113 -0.1687 0
M  V30 5 C 0.8683 0.3598 -0.0004 0
M  V30 6 C 2.4562 0.4417 1.8361 0
M  V30 7 C -2.4328 0.2659 0.9832 0
M  V30 8 C -2.6553 0.2472 -0.5801 0
M  V30 9 C -1.2428 0.5626 -1.0163 0
M  V30 10 C 1.5353 0.579 -1.4179 0
M  V30 11 O 1.341 2.0363 -1.6507 0
M  V30 12 C 0.0782 2.2291 -2.2166 0
M  V30 13 C -0.5977 0.8539 -2.402 0
M  V30 14 O -0.4135 3.318 -2.4552 0
M  V30 15 C 0.7602 0.1678 -2.7001 0
M  V30 16 C 0.7812 -1.2141 -3.3773 0
M  V30 17 H 1.2426 0.7684 -3.4982 0
M  V30 18 H -1.1794 1.558 -0.5377 0
M  V30 19 H 0.6516 1.3952 0.3174 0
M  V30 20 H -1.3722 -1.491 1.5134 0
M  V30 21 C -0.2828 -1.8835 -0.5957 0
M  V30 22 C 2.1775 -1.8412 -3.3215 0
M  V30 23 C 0.3485 -1.1006 -4.8514 0
M  V30 24 H 0.059 -1.9009 -2.9478 0
M  V30 25 H -0.0649 1.0264 2.4198 0
M  V30 26 H 0.1162 -0.6408 3.0244 0
M  V30 27 H 2.715 -0.0049 2.8019 0
M  V30 28 H 2.2927 1.5147 1.9874 0
M  V30 29 H 3.3255 0.3162 1.1818 0
M  V30 30 H -2.3716 1.2962 1.3534 0
M  V30 31 H -3.2639 -0.2261 1.4982 0
M  V30 32 H -3.381 1.0069 -0.8836 0
M  V30 33 H -2.9934 -0.7358 -0.9222 0
M  V30 34 H 2.6088 0.3798 -1.4394 0
M  V30 35 H -1.2929 0.8772 -3.2423 0
M  V30 36 H -0.3075 -2.5854 0.2475 0
M  V30 37 H 0.692 -2.089 -1.0319 0
M  V30 38 H -1.0943 -2.1904 -1.2614 0
M  V30 39 H 2.1795 -2.8241 -3.8049 0
M  V30 40 H 2.5176 -1.9822 -2.2914 0
M  V30 41 H 2.9143 -1.2135 -3.8343 0
M  V30 42 H 0.3522 -2.0859 -5.3307 0
M  V30 43 H 1.0232 -0.452 -5.421 0
M  V30 44 H -0.6652 -0.6967 -4.9346 0
M  V30 END ATOM
M  V30 BEGIN BOND
M  V30 1 1 5 1
M  V30 2 1 1 6
M  V30 3 1 1 2
M  V30 4 1 3 2
M  V30 5 1 2 25
M  V30 6 1 2 26
M  V30 7 1 4 3
M  V30 8 1 7 3
M  V30 9 1 3 20
M  V30 10 1 9 4
M  V30 11 1 21 4
M  V30 12 1 4 5
M  V30 13 1 10 5
M  V30 14 1 5 19
M  V30 15 1 29 6
M  V30 16 1 6 28
M  V30 17 1 6 27
M  V30 18 1 8 7
M  V30 19 1 7 30
M  V30 20 1 7 31
M  V30 21 1 9 8
M  V30 22 1 33 8
M  V30 23 1 32 8
M  V30 24 1 13 9
M  V30 25 1 9 18
M  V30 26 1 15 10
M  V30 27 1 11 10
M  V30 28 1 34 10
M  V30 29 1 12 11
M  V30 30 2 14 12
M  V30 31 1 13 12
M  V30 32 1 35 13
M  V30 33 1 15 13
M  V30 34 1 17 15
M  V30 35 1 16 15
M  V30 36 1 23 16
M  V30 37 1 16 22
M  V30 38 1 16 24
M  V30 39 1 38 21
M  V30 40 1 37 21
M  V30 41 1 21 36
M  V30 42 1 41 22
M  V30 43 1 39 22
M  V30 44 1 22 40
M  V30 45 1 43 23
M  V30 46 1 42 23
M  V30 47 1 44 23
M  V30 END BOND
M  V30 END CTAB
M  END
