44
dendrobine
N          1.29605       -0.23189        1.26701
C          0.05733       -0.02262        2.12271
C         -1.09739       -0.47380        1.20592
C         -0.42844       -0.41129       -0.16866
C          0.86832        0.35976       -0.00040
C          2.45618        0.44172        1.83608
C         -2.43280        0.26587        0.98323
C         -2.65526        0.24715       -0.58007
C         -1.24280        0.56261       -1.01626
C          1.53533        0.57899       -1.41794
O          1.34096        2.03626       -1.65068
C          0.07819        2.22905       -2.21664
C         -0.59770        0.85394       -2.40197
O         -0.41347        3.31803       -2.45525
C          0.76023        0.16780       -2.70006
C          0.78122       -1.21410       -3.37735
H          1.24261        0.76844       -3.49822
H         -1.17939        1.55800       -0.53766
H          0.65158        1.39518        0.31742
H         -1.37221       -1.49100        1.51338
C         -0.28277       -1.88347       -0.59567
C          2.17747       -1.84120       -3.32145
C          0.34847       -1.10064       -4.85143
H          0.05904       -1.90092       -2.94783
H         -0.06489        1.02643        2.41977
H          0.11618       -0.64079        3.02439
H          2.71496       -0.00486        2.80194
H          2.29268        1.51467        1.98736
H          3.32552        0.31624        1.18175
H         -2.37156        1.29616        1.35342
H         -3.26395       -0.22605        1.49817
H         -3.38096        1.00694       -0.88362
H         -2.99335       -0.73577       -0.92219
H          2.60879        0.37977       -1.43942
H         -1.29291        0.87716       -3.24234
H         -0.30747       -2.58540        0.24751
H          0.69200       -2.08905       -1.03186
H         -1.09433       -2.19042       -1.26138
H          2.17948       -2.82409       -3.80492
H          2.51758       -1.98217       -2.29137
H          2.91433       -1.21347       -3.83434
H          0.35220       -2.08590       -5.33068
H          1.02315       -0.45197       -5.42096
H         -0.66521       -0.69675       -4.93459
