pentane
 OpenBabel02262423343D

  0  0  0     0  0            999 V3000
M  V30 BEGIN CTAB
M  V30 COUNTS 17 16 0 0 0
M  V30 BEGIN ATOM
M  V30 1 C -2.8045 3.9964 -1.4128 0
M  V30 2 C -2.7484 3.3174 -0.0536 0
M  V30 3 H -3.684 4.6446 -1.4767 0
M  V30 4 H -2.8678 3.2576 -2.2181 0
M  V30 5 H -1.9154 4.6126 -1.5806 0
M  V30 6 C -1.5288 2.404 0.0663 0
M  V30 7 H -3.6655 2.7359 0.0959 0
M  V30 8 H -2.7185 4.0835 0.7299 0
M  V30 9 C -0.2286 3.1846 -0.1246 0
M  V30 10 H -1.592 1.6061 -0.6838 0
M  V30 11 H -1.5265 1.9213 1.0512 0
M  V30 12 C -0.0892 4.2949 0.9046 0
M  V30 13 H -0.2001 3.6206 -1.13 0
M  V30 14 H 0.6287 2.5066 -0.0404 0
M  V30 15 H -0.915 5.0091 0.8255 0
M  V30 16 H 0.8472 4.8399 0.7496 0
M  V30 17 H -0.0817 3.8889 1.9212 0
M  V30 END ATOM
M  V30 BEGIN BOND
M  V30 1 1 5 1
M  V30 2 1 2 1
M  V30 3 1 3 1
M  V30 4 1 1 4
M  V30 5 1 8 2
M  V30 6 1 2 6
M  V30 7 1 2 7
M  V30 8 1 10 6
M  V30 9 1 9 6
M  V30 10 1 6 11
M  V30 11 1 14 9
M  V30 12 1 9 12
M  V30 13 1 9 13
M  V30 14 1 17 12
M  V30 15 1 16 12
M  V30 16 1 12 15
M  V30 END BOND
M  V30 END CTAB
M  END
$$$$
pentane
 OpenBabel02262423343D

  0  0  0     0  0            999 V3000
M  V30 BEGIN CTAB
M  V30 COUNTS 17 16 0 0 0
M  V30 BEGIN ATOM
M  V30 1 C -2.7298 4.4129 1.0005 0
M  V30 2 C -2.7484 3.3174 -0.0536 0
M  V30 3 H -3.6107 5.0541 0.8964 0
M  V30 4 H -1.8387 5.0405 0.8984 0
M  V30 5 H -2.7368 3.9871 2.009 0
M  V30 6 C -1.5288 2.404 0.0663 0
M  V30 7 H -2.7735 3.7765 -1.0488 0
M  V30 8 H -3.6668 2.7289 0.0556 0
M  V30 9 C -0.2286 3.1846 -0.1246 0
M  V30 10 H -1.592 1.6061 -0.6838 0
M  V30 11 H -1.5265 1.9213 1.0512 0
M  V30 12 C -0.1627 3.8294 -1.4999 0
M  V30 13 H 0.6299 2.5144 -0.0003 0
M  V30 14 H -0.1459 3.9636 0.6421 0
M  V30 15 H -0.2104 3.0736 -2.2903 0
M  V30 16 H 0.7748 4.3823 -1.6147 0
M  V30 17 H -0.9907 4.5309 -1.6443 0
M  V30 END ATOM
M  V30 BEGIN BOND
M  V30 1 1 5 1
M  V30 2 1 2 1
M  V30 3 1 3 1
M  V30 4 1 1 4
M  V30 5 1 8 2
M  V30 6 1 2 6
M  V30 7 1 2 7
M  V30 8 1 10 6
M  V30 9 1 9 6
M  V30 10 1 6 11
M  V30 11 1 14 9
M  V30 12 1 9 12
M  V30 13 1 9 13
M  V30 14 1 17 12
M  V30 15 1 16 12
M  V30 16 1 12 15
M  V30 END BOND
M  V30 END CTAB
M  END
$$$$
pentane
 OpenBabel02262423343D

  0  0  0     0  0            999 V3000
M  V30 BEGIN CTAB
M  V30 COUNTS 17 16 0 0 0
M  V30 BEGIN ATOM
M  V30 1 C -4.0432 2.5483 0.1546 0
M  V30 2 C -2.7484 3.3174 -0.0536 0
M  V30 3 H -4.9021 3.2207 0.0645 0
M  V30 4 H -4.0725 2.0912 1.1488 0
M  V30 5 H -4.1528 1.7552 -0.592 0
M  V30 6 C -1.5288 2.404 0.0663 0
M  V30 7 H -2.6852 4.1224 0.6878 0
M  V30 8 H -2.7652 3.7884 -1.0434 0
M  V30 9 C -0.2286 3.1846 -0.1246 0
M  V30 10 H -1.592 1.6061 -0.6838 0
M  V30 11 H -1.5265 1.9213 1.0512 0
M  V30 12 C 0.9866 2.2767 -0.0215 0
M  V30 13 H -0.1532 3.9735 0.6327 0
M  V30 14 H -0.229 3.6748 -1.1051 0
M  V30 15 H 1.0344 1.7952 0.9604 0
M  V30 16 H 1.905 2.8554 -0.1612 0
M  V30 17 H 0.9581 1.4947 -0.7871 0
M  V30 END ATOM
M  V30 BEGIN BOND
M  V30 1 1 5 1
M  V30 2 1 2 1
M  V30 3 1 3 1
M  V30 4 1 1 4
M  V30 5 1 8 2
M  V30 6 1 2 6
M  V30 7 1 2 7
M  V30 8 1 10 6
M  V30 9 1 9 6
M  V30 10 1 6 11
M  V30 11 1 14 9
M  V30 12 1 9 12
M  V30 13 1 9 13
M  V30 14 1 17 12
M  V30 15 1 16 12
M  V30 16 1 12 15
M  V30 END BOND
M  V30 END CTAB
M  END
$$$$
pentane
 OpenBabel02262423343D

  0  0  0     0  0            999 V3000
M  V30 BEGIN CTAB
M  V30 COUNTS 17 16 0 0 0
M  V30 BEGIN ATOM
M  V30 1 C -4.0432 2.5483 0.1546 0
M  V30 2 C -2.7484 3.3174 -0.0536 0
M  V30 3 H -4.9021 3.2207 0.0645 0
M  V30 4 H -4.0725 2.0912 1.1488 0
M  V30 5 H -4.1528 1.7552 -0.592 0
M  V30 6 C -1.5288 2.404 0.0663 0
M  V30 7 H -2.6852 4.1224 0.6878 0
M  V30 8 H -2.7652 3.7884 -1.0434 0
M  V30 9 C -0.2286 3.1846 -0.1246 0
M  V30 10 H -1.592 1.6061 -0.6838 0
M  V30 11 H -1.5265 1.9213 1.0512 0
M  V30 12 C -0.0892 4.2949 0.9046 0
M  V30 13 H -0.2001 3.6206 -1.13 0
M  V30 14 H 0.6287 2.5066 -0.0404 0
M  V30 15 H -0.915 5.0091 0.8255 0
M  V30 16 H 0.8472 4.8399 0.7496 0
M  V30 17 H -0.0817 3.8889 1.9212 0
M  V30 END ATOM
M  V30 BEGIN BOND
M  V30 1 1 5 1
M  V30 2 1 2 1
M  V30 3 1 3 1
M  V30 4 1 1 4
M  V30 5 1 8 2
M  V30 6 1 2 6
M  V30 7 1 2 7
M  V30 8 1 10 6
M  V30 9 1 9 6
M  V30 10 1 6 11
M  V30 11 1 14 9
M  V30 12 1 9 12
M  V30 13 1 9 13
M  V30 14 1 17 12
M  V30 15 1 16 12
M  V30 16 1 12 15
M  V30 END BOND
M  V30 END CTAB
M  END
$$$$
pentane
 OpenBabel02262423343D

  0  0  0     0  0            999 V3000
M  V30 BEGIN CTAB
M  V30 COUNTS 17 16 0 0 0
M  V30 BEGIN ATOM
M  V30 1 C -4.0432 2.5483 0.1546 0
M  V30 2 C -2.7484 3.3174 -0.0536 0
M  V30 3 H -4.9021 3.2207 0.0645 0
M  V30 4 H -4.0725 2.0912 1.1488 0
M  V30 5 H -4.1528 1.7552 -0.592 0
M  V30 6 C -1.5288 2.404 0.0663 0
M  V30 7 H -2.6852 4.1224 0.6878 0
M  V30 8 H -2.7652 3.7884 -1.0434 0
M  V30 9 C -0.2286 3.1846 -0.1246 0
M  V30 10 H -1.592 1.6061 -0.6838 0
M  V30 11 H -1.5265 1.9213 1.0512 0
M  V30 12 C -0.1627 3.8294 -1.4999 0
M  V30 13 H 0.6299 2.5144 -0.0003 0
M  V30 14 H -0.1459 3.9636 0.6421 0
M  V30 15 H -0.2104 3.0736 -2.2903 0
M  V30 16 H 0.7748 4.3823 -1.6147 0
M  V30 17 H -0.9907 4.5309 -1.6443 0
M  V30 END ATOM
M  V30 BEGIN BOND
M  V30 1 1 5 1
M  V30 2 1 2 1
M  V30 3 1 3 1
M  V30 4 1 1 4
M  V30 5 1 8 2
M  V30 6 1 2 6
M  V30 7 1 2 7
M  V30 8 1 10 6
M  V30 9 1 9 6
M  V30 10 1 6 11
M  V30 11 1 14 9
M  V30 12 1 9 12
M  V30 13 1 9 13
M  V30 14 1 17 12
M  V30 15 1 16 12
M  V30 16 1 12 15
M  V30 END BOND
M  V30 END CTAB
M  END
$$$$
pentane
 OpenBabel02262423343D

  0  0  0     0  0            999 V3000
M  V30 BEGIN CTAB
M  V30 COUNTS 17 16 0 0 0
M  V30 BEGIN ATOM
M  V30 1 C -2.8045 3.9964 -1.4128 0
M  V30 2 C -2.7484 3.3174 -0.0536 0
M  V30 3 H -3.684 4.6446 -1.4767 0
M  V30 4 H -2.8678 3.2576 -2.2181 0
M  V30 5 H -1.9154 4.6126 -1.5806 0
M  V30 6 C -1.5288 2.404 0.0663 0
M  V30 7 H -3.6655 2.7359 0.0959 0
M  V30 8 H -2.7185 4.0835 0.7299 0
M  V30 9 C -0.2286 3.1846 -0.1246 0
M  V30 10 H -1.592 1.6061 -0.6838 0
M  V30 11 H -1.5265 1.9213 1.0512 0
M  V30 12 C 0.9866 2.2767 -0.0215 0
M  V30 13 H -0.1532 3.9735 0.6327 0
M  V30 14 H -0.229 3.6748 -1.1051 0
M  V30 15 H 1.0344 1.7952 0.9604 0
M  V30 16 H 1.905 2.8554 -0.1612 0
M  V30 17 H 0.9581 1.4947 -0.7871 0
M  V30 END ATOM
M  V30 BEGIN BOND
M  V30 1 1 5 1
M  V30 2 1 2 1
M  V30 3 1 3 1
M  V30 4 1 1 4
M  V30 5 1 8 2
M  V30 6 1 2 6
M  V30 7 1 2 7
M  V30 8 1 10 6
M  V30 9 1 9 6
M  V30 10 1 6 11
M  V30 11 1 14 9
M  V30 12 1 9 12
M  V30 13 1 9 13
M  V30 14 1 17 12
M  V30 15 1 16 12
M  V30 16 1 12 15
M  V30 END BOND
M  V30 END CTAB
M  END
$$$$
pentane
 OpenBabel02262423343D

  0  0  0     0  0            999 V3000
M  V30 BEGIN CTAB
M  V30 COUNTS 17 16 0 0 0
M  V30 BEGIN ATOM
M  V30 1 C -2.7298 4.4129 1.0005 0
M  V30 2 C -2.7484 3.3174 -0.0536 0
M  V30 3 H -3.6107 5.0541 0.8964 0
M  V30 4 H -1.8387 5.0405 0.8984 0
M  V30 5 H -2.7368 3.9871 2.009 0
M  V30 6 C -1.5288 2.404 0.0663 0
M  V30 7 H -2.7735 3.7765 -1.0488 0
M  V30 8 H -3.6668 2.7289 0.0556 0
M  V30 9 C -0.2286 3.1846 -0.1246 0
M  V30 10 H -1.592 1.6061 -0.6838 0
M  V30 11 H -1.5265 1.9213 1.0512 0
M  V30 12 C 0.9866 2.2767 -0.0215 0
M  V30 13 H -0.1532 3.9735 0.6327 0
M  V30 14 H -0.229 3.6748 -1.1051 0
M  V30 15 H 1.0344 1.7952 0.9604 0
M  V30 16 H 1.905 2.8554 -0.1612 0
M  V30 17 H 0.9581 1.4947 -0.7871 0
M  V30 END ATOM
M  V30 BEGIN BOND
M  V30 1 1 5 1
M  V30 2 1 2 1
M  V30 3 1 3 1
M  V30 4 1 1 4
M  V30 5 1 8 2
M  V30 6 1 2 6
M  V30 7 1 2 7
M  V30 8 1 10 6
M  V30 9 1 9 6
M  V30 10 1 6 11
M  V30 11 1 14 9
M  V30 12 1 9 12
M  V30 13 1 9 13
M  V30 14 1 17 12
M  V30 15 1 16 12
M  V30 16 1 12 15
M  V30 END BOND
M  V30 END CTAB
M  END
