17
.\pentane.xyz
C         -2.80450        3.99638       -1.41283
C         -2.74837        3.31744       -0.05363
H         -3.68405        4.64462       -1.47668
H         -2.86781        3.25756       -2.21811
H         -1.91541        4.61260       -1.58058
C         -1.52880        2.40396        0.06627
H         -3.66552        2.73588        0.09590
H         -2.71846        4.08351        0.72993
C         -0.22865        3.18455       -0.12461
H         -1.59201        1.60612       -0.68381
H         -1.52651        1.92128        1.05123
C         -0.08919        4.29491        0.90457
H         -0.20012        3.62057       -1.12999
H          0.62867        2.50659       -0.04042
H         -0.91502        5.00911        0.82552
H          0.84723        4.83991        0.74962
H         -0.08174        3.88890        1.92116
17
.\pentane.xyz
C         -2.72980        4.41287        1.00051
C         -2.74837        3.31744       -0.05363
H         -3.61066        5.05407        0.89638
H         -1.83874        5.04051        0.89843
H         -2.73684        3.98707        2.00897
C         -1.52880        2.40396        0.06627
H         -2.77352        3.77652       -1.04879
H         -3.66676        2.72894        0.05560
C         -0.22865        3.18455       -0.12461
H         -1.59201        1.60612       -0.68381
H         -1.52651        1.92128        1.05123
C         -0.16274        3.82945       -1.49986
H          0.62989        2.51435       -0.00029
H         -0.14591        3.96364        0.64213
H         -0.21044        3.07363       -2.29030
H          0.77484        4.38234       -1.61468
H         -0.99065        4.53090       -1.64432
17
.\pentane.xyz
C         -4.04322        2.54831        0.15457
C         -2.74837        3.31744       -0.05363
H         -4.90212        3.22067        0.06446
H         -4.07247        2.09116        1.14880
H         -4.15283        1.75522       -0.59198
C         -1.52880        2.40396        0.06627
H         -2.68516        4.12242        0.68781
H         -2.76515        3.78842       -1.04338
C         -0.22865        3.18455       -0.12461
H         -1.59201        1.60612       -0.68381
H         -1.52651        1.92128        1.05123
C          0.98655        2.27669       -0.02155
H         -0.15324        3.97353        0.63272
H         -0.22901        3.67479       -1.10511
H          1.03438        1.79516        0.96037
H          1.90497        2.85542       -0.16117
H          0.95810        1.49469       -0.78707
17
.\pentane.xyz
C         -4.04322        2.54831        0.15457
C         -2.74837        3.31744       -0.05363
H         -4.90212        3.22067        0.06446
H         -4.07247        2.09116        1.14880
H         -4.15283        1.75522       -0.59198
C         -1.52880        2.40396        0.06627
H         -2.68516        4.12242        0.68781
H         -2.76515        3.78842       -1.04338
C         -0.22865        3.18455       -0.12461
H         -1.59201        1.60612       -0.68381
H         -1.52651        1.92128        1.05123
C         -0.16274        3.82945       -1.49986
H          0.62989        2.51435       -0.00029
H         -0.14591        3.96364        0.64213
H         -0.21044        3.07363       -2.29030
H          0.77484        4.38234       -1.61468
H         -0.99065        4.53090       -1.64432
17
.\pentane.xyz
C         -4.04322        2.54831        0.15457
C         -2.74837        3.31744       -0.05363
H         -4.90212        3.22067        0.06446
H         -4.07247        2.09116        1.14880
H         -4.15283        1.75522       -0.59198
C         -1.52880        2.40396        0.06627
H         -2.68516        4.12242        0.68781
H         -2.76515        3.78842       -1.04338
C         -0.22865        3.18455       -0.12461
H         -1.59201        1.60612       -0.68381
H         -1.52651        1.92128        1.05123
C         -0.08919        4.29491        0.90457
H         -0.20012        3.62057       -1.12999
H          0.62867        2.50659       -0.04042
H         -0.91502        5.00911        0.82552
H          0.84723        4.83991        0.74962
H         -0.08174        3.88890        1.92116
17
.\pentane.xyz
C         -2.80450        3.99638       -1.41283
C         -2.74837        3.31744       -0.05363
H         -3.68405        4.64462       -1.47668
H         -2.86781        3.25756       -2.21811
H         -1.91541        4.61260       -1.58058
C         -1.52880        2.40396        0.06627
H         -3.66552        2.73588        0.09590
H         -2.71846        4.08351        0.72993
C         -0.22865        3.18455       -0.12461
H         -1.59201        1.60612       -0.68381
H         -1.52651        1.92128        1.05123
C          0.98655        2.27669       -0.02155
H         -0.15324        3.97353        0.63272
H         -0.22901        3.67479       -1.10511
H          1.03438        1.79516        0.96037
H          1.90497        2.85542       -0.16117
H          0.95810        1.49469       -0.78707
17
.\pentane.xyz
C         -2.72980        4.41287        1.00051
C         -2.74837        3.31744       -0.05363
H         -3.61066        5.05407        0.89638
H         -1.83874        5.04051        0.89843
H         -2.73684        3.98707        2.00897
C         -1.52880        2.40396        0.06627
H         -2.77352        3.77652       -1.04879
H         -3.66676        2.72894        0.05560
C         -0.22865        3.18455       -0.12461
H         -1.59201        1.60612       -0.68381
H         -1.52651        1.92128        1.05123
C          0.98655        2.27669       -0.02155
H         -0.15324        3.97353        0.63272
H         -0.22901        3.67479       -1.10511
H          1.03438        1.79516        0.96037
H          1.90497        2.85542       -0.16117
H          0.95810        1.49469       -0.78707
